<?xml version="1.0" encoding="UTF-8" standalone="yes"?>
<template encoding-version="1.3">
    <description></description>
    <groupId>7ef6943e-018c-1000-7f46-b16999ed917a</groupId>
    <name>Final_neigh_sales_nifi_flow</name>
    <snippet>
        <connections>
            <id>257574b5-3e37-3b3d-0000-000000000000</id>
            <parentGroupId>9293ed53-db13-314c-0000-000000000000</parentGroupId>
            <backPressureDataSizeThreshold>1 GB</backPressureDataSizeThreshold>
            <backPressureObjectThreshold>10000</backPressureObjectThreshold>
            <destination>
                <groupId>9293ed53-db13-314c-0000-000000000000</groupId>
                <id>47a0b9f8-fa4b-38db-0000-000000000000</id>
                <type>PROCESSOR</type>
            </destination>
            <flowFileExpiration>0 sec</flowFileExpiration>
            <labelIndex>1</labelIndex>
            <loadBalanceCompression>DO_NOT_COMPRESS</loadBalanceCompression>
            <loadBalancePartitionAttribute></loadBalancePartitionAttribute>
            <loadBalanceStatus>LOAD_BALANCE_NOT_CONFIGURED</loadBalanceStatus>
            <loadBalanceStrategy>DO_NOT_LOAD_BALANCE</loadBalanceStrategy>
            <name></name>
            <selectedRelationships>success</selectedRelationships>
            <source>
                <groupId>9293ed53-db13-314c-0000-000000000000</groupId>
                <id>fc614b78-b951-3622-0000-000000000000</id>
                <type>PROCESSOR</type>
            </source>
            <zIndex>0</zIndex>
        </connections>
        <connections>
            <id>37ddecf3-1c5d-3b9e-0000-000000000000</id>
            <parentGroupId>9293ed53-db13-314c-0000-000000000000</parentGroupId>
            <backPressureDataSizeThreshold>1 GB</backPressureDataSizeThreshold>
            <backPressureObjectThreshold>10000</backPressureObjectThreshold>
            <destination>
                <groupId>9293ed53-db13-314c-0000-000000000000</groupId>
                <id>f71eaa8a-fa94-348c-0000-000000000000</id>
                <type>PROCESSOR</type>
            </destination>
            <flowFileExpiration>0 sec</flowFileExpiration>
            <labelIndex>1</labelIndex>
            <loadBalanceCompression>DO_NOT_COMPRESS</loadBalanceCompression>
            <loadBalancePartitionAttribute></loadBalancePartitionAttribute>
            <loadBalanceStatus>LOAD_BALANCE_NOT_CONFIGURED</loadBalanceStatus>
            <loadBalanceStrategy>DO_NOT_LOAD_BALANCE</loadBalanceStrategy>
            <name></name>
            <selectedRelationships>Response</selectedRelationships>
            <source>
                <groupId>9293ed53-db13-314c-0000-000000000000</groupId>
                <id>2253b072-dccb-33d2-0000-000000000000</id>
                <type>PROCESSOR</type>
            </source>
            <zIndex>0</zIndex>
        </connections>
        <connections>
            <id>49638db0-5e9c-371b-0000-000000000000</id>
            <parentGroupId>9293ed53-db13-314c-0000-000000000000</parentGroupId>
            <backPressureDataSizeThreshold>1 GB</backPressureDataSizeThreshold>
            <backPressureObjectThreshold>10000</backPressureObjectThreshold>
            <destination>
                <groupId>9293ed53-db13-314c-0000-000000000000</groupId>
                <id>1b6f2ee0-ffba-3151-0000-000000000000</id>
                <type>PROCESSOR</type>
            </destination>
            <flowFileExpiration>0 sec</flowFileExpiration>
            <labelIndex>1</labelIndex>
            <loadBalanceCompression>DO_NOT_COMPRESS</loadBalanceCompression>
            <loadBalancePartitionAttribute></loadBalancePartitionAttribute>
            <loadBalanceStatus>LOAD_BALANCE_NOT_CONFIGURED</loadBalanceStatus>
            <loadBalanceStrategy>DO_NOT_LOAD_BALANCE</loadBalanceStrategy>
            <name></name>
            <selectedRelationships>failure</selectedRelationships>
            <source>
                <groupId>9293ed53-db13-314c-0000-000000000000</groupId>
                <id>fc614b78-b951-3622-0000-000000000000</id>
                <type>PROCESSOR</type>
            </source>
            <zIndex>0</zIndex>
        </connections>
        <connections>
            <id>4af71d0a-3164-319c-0000-000000000000</id>
            <parentGroupId>9293ed53-db13-314c-0000-000000000000</parentGroupId>
            <backPressureDataSizeThreshold>1 GB</backPressureDataSizeThreshold>
            <backPressureObjectThreshold>10000</backPressureObjectThreshold>
            <destination>
                <groupId>9293ed53-db13-314c-0000-000000000000</groupId>
                <id>fc614b78-b951-3622-0000-000000000000</id>
                <type>PROCESSOR</type>
            </destination>
            <flowFileExpiration>0 sec</flowFileExpiration>
            <labelIndex>1</labelIndex>
            <loadBalanceCompression>DO_NOT_COMPRESS</loadBalanceCompression>
            <loadBalancePartitionAttribute></loadBalancePartitionAttribute>
            <loadBalanceStatus>LOAD_BALANCE_NOT_CONFIGURED</loadBalanceStatus>
            <loadBalanceStrategy>DO_NOT_LOAD_BALANCE</loadBalanceStrategy>
            <name></name>
            <selectedRelationships>success</selectedRelationships>
            <source>
                <groupId>9293ed53-db13-314c-0000-000000000000</groupId>
                <id>f71eaa8a-fa94-348c-0000-000000000000</id>
                <type>PROCESSOR</type>
            </source>
            <zIndex>0</zIndex>
        </connections>
        <connections>
            <id>514ca822-caff-3691-0000-000000000000</id>
            <parentGroupId>9293ed53-db13-314c-0000-000000000000</parentGroupId>
            <backPressureDataSizeThreshold>1 GB</backPressureDataSizeThreshold>
            <backPressureObjectThreshold>10000</backPressureObjectThreshold>
            <destination>
                <groupId>9293ed53-db13-314c-0000-000000000000</groupId>
                <id>bc2dddf7-a565-3461-0000-000000000000</id>
                <type>PROCESSOR</type>
            </destination>
            <flowFileExpiration>0 sec</flowFileExpiration>
            <labelIndex>1</labelIndex>
            <loadBalanceCompression>DO_NOT_COMPRESS</loadBalanceCompression>
            <loadBalancePartitionAttribute></loadBalancePartitionAttribute>
            <loadBalanceStatus>LOAD_BALANCE_NOT_CONFIGURED</loadBalanceStatus>
            <loadBalanceStrategy>DO_NOT_LOAD_BALANCE</loadBalanceStrategy>
            <name></name>
            <selectedRelationships>success</selectedRelationships>
            <source>
                <groupId>9293ed53-db13-314c-0000-000000000000</groupId>
                <id>47a0b9f8-fa4b-38db-0000-000000000000</id>
                <type>PROCESSOR</type>
            </source>
            <zIndex>0</zIndex>
        </connections>
        <connections>
            <id>5f6ab656-8d50-35fc-0000-000000000000</id>
            <parentGroupId>9293ed53-db13-314c-0000-000000000000</parentGroupId>
            <backPressureDataSizeThreshold>1 GB</backPressureDataSizeThreshold>
            <backPressureObjectThreshold>10000</backPressureObjectThreshold>
            <destination>
                <groupId>9293ed53-db13-314c-0000-000000000000</groupId>
                <id>1b6f2ee0-ffba-3151-0000-000000000000</id>
                <type>PROCESSOR</type>
            </destination>
            <flowFileExpiration>0 sec</flowFileExpiration>
            <labelIndex>1</labelIndex>
            <loadBalanceCompression>DO_NOT_COMPRESS</loadBalanceCompression>
            <loadBalancePartitionAttribute></loadBalancePartitionAttribute>
            <loadBalanceStatus>LOAD_BALANCE_NOT_CONFIGURED</loadBalanceStatus>
            <loadBalanceStrategy>DO_NOT_LOAD_BALANCE</loadBalanceStrategy>
            <name></name>
            <selectedRelationships>failure</selectedRelationships>
            <source>
                <groupId>9293ed53-db13-314c-0000-000000000000</groupId>
                <id>bc2dddf7-a565-3461-0000-000000000000</id>
                <type>PROCESSOR</type>
            </source>
            <zIndex>0</zIndex>
        </connections>
        <connections>
            <id>b662372c-928d-3214-0000-000000000000</id>
            <parentGroupId>9293ed53-db13-314c-0000-000000000000</parentGroupId>
            <backPressureDataSizeThreshold>1 GB</backPressureDataSizeThreshold>
            <backPressureObjectThreshold>10000</backPressureObjectThreshold>
            <destination>
                <groupId>9293ed53-db13-314c-0000-000000000000</groupId>
                <id>1b6f2ee0-ffba-3151-0000-000000000000</id>
                <type>PROCESSOR</type>
            </destination>
            <flowFileExpiration>0 sec</flowFileExpiration>
            <labelIndex>1</labelIndex>
            <loadBalanceCompression>DO_NOT_COMPRESS</loadBalanceCompression>
            <loadBalancePartitionAttribute></loadBalancePartitionAttribute>
            <loadBalanceStatus>LOAD_BALANCE_NOT_CONFIGURED</loadBalanceStatus>
            <loadBalanceStrategy>DO_NOT_LOAD_BALANCE</loadBalanceStrategy>
            <name></name>
            <selectedRelationships>Failure</selectedRelationships>
            <source>
                <groupId>9293ed53-db13-314c-0000-000000000000</groupId>
                <id>2253b072-dccb-33d2-0000-000000000000</id>
                <type>PROCESSOR</type>
            </source>
            <zIndex>0</zIndex>
        </connections>
        <controllerServices>
            <id>0465314a-d868-3eba-0000-000000000000</id>
            <parentGroupId>9293ed53-db13-314c-0000-000000000000</parentGroupId>
            <bundle>
                <artifact>nifi-record-serialization-services-nar</artifact>
                <group>org.apache.nifi</group>
                <version>1.14.0</version>
            </bundle>
            <comments></comments>
            <descriptors>
                <entry>
                    <key>Schema Write Strategy</key>
                    <value>
                        <name>Schema Write Strategy</name>
                    </value>
                </entry>
                <entry>
                    <key>schema-cache</key>
                    <value>
                        <identifiesControllerService>org.apache.nifi.serialization.RecordSchemaCacheService</identifiesControllerService>
                        <name>schema-cache</name>
                    </value>
                </entry>
                <entry>
                    <key>schema-protocol-version</key>
                    <value>
                        <dependencies>
                            <dependentValues>hwx-schema-ref-attributes</dependentValues>
                            <dependentValues>hwx-content-encoded-schema</dependentValues>
                            <propertyName>Schema Write Strategy</propertyName>
                        </dependencies>
                        <name>schema-protocol-version</name>
                    </value>
                </entry>
                <entry>
                    <key>schema-access-strategy</key>
                    <value>
                        <name>schema-access-strategy</name>
                    </value>
                </entry>
                <entry>
                    <key>schema-registry</key>
                    <value>
                        <dependencies>
                            <dependentValues>confluent-encoded</dependentValues>
                            <dependentValues>schema-name</dependentValues>
                            <dependentValues>hwx-schema-ref-attributes</dependentValues>
                            <dependentValues>hwx-content-encoded-schema</dependentValues>
                            <propertyName>schema-access-strategy</propertyName>
                        </dependencies>
                        <identifiesControllerService>org.apache.nifi.schemaregistry.services.SchemaRegistry</identifiesControllerService>
                        <name>schema-registry</name>
                    </value>
                </entry>
                <entry>
                    <key>schema-name</key>
                    <value>
                        <dependencies>
                            <dependentValues>schema-name</dependentValues>
                            <propertyName>schema-access-strategy</propertyName>
                        </dependencies>
                        <name>schema-name</name>
                    </value>
                </entry>
                <entry>
                    <key>schema-version</key>
                    <value>
                        <dependencies>
                            <dependentValues>schema-name</dependentValues>
                            <propertyName>schema-access-strategy</propertyName>
                        </dependencies>
                        <name>schema-version</name>
                    </value>
                </entry>
                <entry>
                    <key>schema-branch</key>
                    <value>
                        <dependencies>
                            <dependentValues>schema-name</dependentValues>
                            <propertyName>schema-access-strategy</propertyName>
                        </dependencies>
                        <name>schema-branch</name>
                    </value>
                </entry>
                <entry>
                    <key>schema-text</key>
                    <value>
                        <dependencies>
                            <dependentValues>schema-text-property</dependentValues>
                            <propertyName>schema-access-strategy</propertyName>
                        </dependencies>
                        <name>schema-text</name>
                    </value>
                </entry>
                <entry>
                    <key>Date Format</key>
                    <value>
                        <name>Date Format</name>
                    </value>
                </entry>
                <entry>
                    <key>Time Format</key>
                    <value>
                        <name>Time Format</name>
                    </value>
                </entry>
                <entry>
                    <key>Timestamp Format</key>
                    <value>
                        <name>Timestamp Format</name>
                    </value>
                </entry>
                <entry>
                    <key>CSV Format</key>
                    <value>
                        <name>CSV Format</name>
                    </value>
                </entry>
                <entry>
                    <key>Value Separator</key>
                    <value>
                        <name>Value Separator</name>
                    </value>
                </entry>
                <entry>
                    <key>Include Header Line</key>
                    <value>
                        <name>Include Header Line</name>
                    </value>
                </entry>
                <entry>
                    <key>Quote Character</key>
                    <value>
                        <name>Quote Character</name>
                    </value>
                </entry>
                <entry>
                    <key>Escape Character</key>
                    <value>
                        <name>Escape Character</name>
                    </value>
                </entry>
                <entry>
                    <key>Comment Marker</key>
                    <value>
                        <name>Comment Marker</name>
                    </value>
                </entry>
                <entry>
                    <key>Null String</key>
                    <value>
                        <name>Null String</name>
                    </value>
                </entry>
                <entry>
                    <key>Trim Fields</key>
                    <value>
                        <name>Trim Fields</name>
                    </value>
                </entry>
                <entry>
                    <key>Quote Mode</key>
                    <value>
                        <name>Quote Mode</name>
                    </value>
                </entry>
                <entry>
                    <key>Record Separator</key>
                    <value>
                        <name>Record Separator</name>
                    </value>
                </entry>
                <entry>
                    <key>Include Trailing Delimiter</key>
                    <value>
                        <name>Include Trailing Delimiter</name>
                    </value>
                </entry>
                <entry>
                    <key>csvutils-character-set</key>
                    <value>
                        <name>csvutils-character-set</name>
                    </value>
                </entry>
            </descriptors>
            <name>CSVRecordSetWriter</name>
            <persistsState>false</persistsState>
            <properties>
                <entry>
                    <key>Schema Write Strategy</key>
                    <value>no-schema</value>
                </entry>
                <entry>
                    <key>schema-cache</key>
                </entry>
                <entry>
                    <key>schema-protocol-version</key>
                    <value>1</value>
                </entry>
                <entry>
                    <key>schema-access-strategy</key>
                    <value>inherit-record-schema</value>
                </entry>
                <entry>
                    <key>schema-registry</key>
                </entry>
                <entry>
                    <key>schema-name</key>
                    <value>${schema.name}</value>
                </entry>
                <entry>
                    <key>schema-version</key>
                </entry>
                <entry>
                    <key>schema-branch</key>
                </entry>
                <entry>
                    <key>schema-text</key>
                    <value>${avro.schema}</value>
                </entry>
                <entry>
                    <key>Date Format</key>
                </entry>
                <entry>
                    <key>Time Format</key>
                </entry>
                <entry>
                    <key>Timestamp Format</key>
                </entry>
                <entry>
                    <key>CSV Format</key>
                    <value>custom</value>
                </entry>
                <entry>
                    <key>Value Separator</key>
                    <value>,</value>
                </entry>
                <entry>
                    <key>Include Header Line</key>
                    <value>true</value>
                </entry>
                <entry>
                    <key>Quote Character</key>
                    <value>"</value>
                </entry>
                <entry>
                    <key>Escape Character</key>
                    <value>\</value>
                </entry>
                <entry>
                    <key>Comment Marker</key>
                </entry>
                <entry>
                    <key>Null String</key>
                </entry>
                <entry>
                    <key>Trim Fields</key>
                    <value>true</value>
                </entry>
                <entry>
                    <key>Quote Mode</key>
                    <value>MINIMAL</value>
                </entry>
                <entry>
                    <key>Record Separator</key>
                    <value>\n</value>
                </entry>
                <entry>
                    <key>Include Trailing Delimiter</key>
                    <value>false</value>
                </entry>
                <entry>
                    <key>csvutils-character-set</key>
                    <value>UTF-8</value>
                </entry>
            </properties>
            <state>ENABLED</state>
            <type>org.apache.nifi.csv.CSVRecordSetWriter</type>
        </controllerServices>
        <controllerServices>
            <id>95ffbbfa-94cb-3f8d-0000-000000000000</id>
            <parentGroupId>9293ed53-db13-314c-0000-000000000000</parentGroupId>
            <bundle>
                <artifact>nifi-record-serialization-services-nar</artifact>
                <group>org.apache.nifi</group>
                <version>1.14.0</version>
            </bundle>
            <comments></comments>
            <descriptors>
                <entry>
                    <key>schema-access-strategy</key>
                    <value>
                        <name>schema-access-strategy</name>
                    </value>
                </entry>
                <entry>
                    <key>schema-registry</key>
                    <value>
                        <dependencies>
                            <dependentValues>confluent-encoded</dependentValues>
                            <dependentValues>schema-name</dependentValues>
                            <dependentValues>hwx-schema-ref-attributes</dependentValues>
                            <dependentValues>hwx-content-encoded-schema</dependentValues>
                            <propertyName>schema-access-strategy</propertyName>
                        </dependencies>
                        <identifiesControllerService>org.apache.nifi.schemaregistry.services.SchemaRegistry</identifiesControllerService>
                        <name>schema-registry</name>
                    </value>
                </entry>
                <entry>
                    <key>schema-name</key>
                    <value>
                        <dependencies>
                            <dependentValues>schema-name</dependentValues>
                            <propertyName>schema-access-strategy</propertyName>
                        </dependencies>
                        <name>schema-name</name>
                    </value>
                </entry>
                <entry>
                    <key>schema-version</key>
                    <value>
                        <dependencies>
                            <dependentValues>schema-name</dependentValues>
                            <propertyName>schema-access-strategy</propertyName>
                        </dependencies>
                        <name>schema-version</name>
                    </value>
                </entry>
                <entry>
                    <key>schema-branch</key>
                    <value>
                        <dependencies>
                            <dependentValues>schema-name</dependentValues>
                            <propertyName>schema-access-strategy</propertyName>
                        </dependencies>
                        <name>schema-branch</name>
                    </value>
                </entry>
                <entry>
                    <key>schema-text</key>
                    <value>
                        <dependencies>
                            <dependentValues>schema-text-property</dependentValues>
                            <propertyName>schema-access-strategy</propertyName>
                        </dependencies>
                        <name>schema-text</name>
                    </value>
                </entry>
                <entry>
                    <key>schema-inference-cache</key>
                    <value>
                        <dependencies>
                            <dependentValues>infer-schema</dependentValues>
                            <propertyName>schema-access-strategy</propertyName>
                        </dependencies>
                        <identifiesControllerService>org.apache.nifi.serialization.RecordSchemaCacheService</identifiesControllerService>
                        <name>schema-inference-cache</name>
                    </value>
                </entry>
                <entry>
                    <key>Date Format</key>
                    <value>
                        <name>Date Format</name>
                    </value>
                </entry>
                <entry>
                    <key>Time Format</key>
                    <value>
                        <name>Time Format</name>
                    </value>
                </entry>
                <entry>
                    <key>Timestamp Format</key>
                    <value>
                        <name>Timestamp Format</name>
                    </value>
                </entry>
            </descriptors>
            <name>JsonTreeReader</name>
            <persistsState>false</persistsState>
            <properties>
                <entry>
                    <key>schema-access-strategy</key>
                    <value>infer-schema</value>
                </entry>
                <entry>
                    <key>schema-registry</key>
                </entry>
                <entry>
                    <key>schema-name</key>
                    <value>${schema.name}</value>
                </entry>
                <entry>
                    <key>schema-version</key>
                </entry>
                <entry>
                    <key>schema-branch</key>
                </entry>
                <entry>
                    <key>schema-text</key>
                    <value>${avro.schema}</value>
                </entry>
                <entry>
                    <key>schema-inference-cache</key>
                </entry>
                <entry>
                    <key>Date Format</key>
                </entry>
                <entry>
                    <key>Time Format</key>
                </entry>
                <entry>
                    <key>Timestamp Format</key>
                </entry>
            </properties>
            <state>ENABLED</state>
            <type>org.apache.nifi.json.JsonTreeReader</type>
        </controllerServices>
        <processors>
            <id>1b6f2ee0-ffba-3151-0000-000000000000</id>
            <parentGroupId>9293ed53-db13-314c-0000-000000000000</parentGroupId>
            <position>
                <x>720.0</x>
                <y>456.0</y>
            </position>
            <bundle>
                <artifact>nifi-standard-nar</artifact>
                <group>org.apache.nifi</group>
                <version>1.14.0</version>
            </bundle>
            <config>
                <bulletinLevel>WARN</bulletinLevel>
                <comments></comments>
                <concurrentlySchedulableTaskCount>1</concurrentlySchedulableTaskCount>
                <descriptors>
                    <entry>
                        <key>SMTP Hostname</key>
                        <value>
                            <name>SMTP Hostname</name>
                        </value>
                    </entry>
                    <entry>
                        <key>SMTP Port</key>
                        <value>
                            <name>SMTP Port</name>
                        </value>
                    </entry>
                    <entry>
                        <key>SMTP Username</key>
                        <value>
                            <name>SMTP Username</name>
                        </value>
                    </entry>
                    <entry>
                        <key>SMTP Password</key>
                        <value>
                            <name>SMTP Password</name>
                        </value>
                    </entry>
                    <entry>
                        <key>SMTP Auth</key>
                        <value>
                            <name>SMTP Auth</name>
                        </value>
                    </entry>
                    <entry>
                        <key>SMTP TLS</key>
                        <value>
                            <name>SMTP TLS</name>
                        </value>
                    </entry>
                    <entry>
                        <key>SMTP Socket Factory</key>
                        <value>
                            <name>SMTP Socket Factory</name>
                        </value>
                    </entry>
                    <entry>
                        <key>SMTP X-Mailer Header</key>
                        <value>
                            <name>SMTP X-Mailer Header</name>
                        </value>
                    </entry>
                    <entry>
                        <key>attribute-name-regex</key>
                        <value>
                            <name>attribute-name-regex</name>
                        </value>
                    </entry>
                    <entry>
                        <key>Content Type</key>
                        <value>
                            <name>Content Type</name>
                        </value>
                    </entry>
                    <entry>
                        <key>From</key>
                        <value>
                            <name>From</name>
                        </value>
                    </entry>
                    <entry>
                        <key>To</key>
                        <value>
                            <name>To</name>
                        </value>
                    </entry>
                    <entry>
                        <key>CC</key>
                        <value>
                            <name>CC</name>
                        </value>
                    </entry>
                    <entry>
                        <key>BCC</key>
                        <value>
                            <name>BCC</name>
                        </value>
                    </entry>
                    <entry>
                        <key>Subject</key>
                        <value>
                            <name>Subject</name>
                        </value>
                    </entry>
                    <entry>
                        <key>Message</key>